<?xml version="1.0" encoding="UTF-8"?>

<!-- generated on 8/19/2017 6:00:46 AM by Netedit Version 0.30.0
<?xml version="1.0" encoding="UTF-8"?>

<configuration xmlns:xsi="http://www.w3.org/2001/XMLSchema-instance" xsi:noNamespaceSchemaLocation="http://sumo.dlr.de/xsd/netconvertConfiguration.xsd">

    <input>
        <sumo-net-file value="C:\Users\MohammadHafiz\Desktop\Cummins\cmax\cmax.net.xml"/>
    </input>

    <output>
        <output-file value="C:\Users\MohammadHafiz\Desktop\Cummins\cmax\cmax.net.xml"/>
    </output>

    <processing>
        <no-turnarounds value="true"/>
        <offset.disable-normalization value="true"/>
        <lefthand value="false"/>
        <junctions.corner-detail value="0"/>
        <rectangular-lane-cut value="false"/>
    </processing>

</configuration>
-->

<net version="0.27" xmlns:xsi="http://www.w3.org/2001/XMLSchema-instance" xsi:noNamespaceSchemaLocation="http://sumo.dlr.de/xsd/net_file.xsd">

    <location netOffset="0.00,0.00" convBoundary="-312.07,-56.79,5630.66,21637.13" origBoundary="-10000000000.00,-10000000000.00,10000000000.00,10000000000.00" projParameter="!"/>

    <edge id=":gneJ10_0" function="internal">
        <lane id=":gneJ10_0_0" index="0" speed="13.89" length="5.32" shape="-15.23,154.86 -16.67,154.85 -17.78,155.32 -18.56,156.25 -19.01,157.64"/>
    </edge>
    <edge id=":gneJ10_1" function="internal">
        <lane id=":gneJ10_1_0" index="0" speed="13.89" length="16.25" shape="-15.23,154.86 -31.31,152.37"/>
        <lane id=":gneJ10_1_1" index="1" speed="13.89" length="16.25" shape="-14.75,151.59 -30.78,149.12"/>
    </edge>
    <edge id=":gneJ10_3" function="internal">
        <lane id=":gneJ10_3_0" index="0" speed="13.89" length="6.48" shape="-14.75,151.59 -18.87,150.37 -20.55,148.98"/>
    </edge>
    <edge id=":gneJ10_4" function="internal">
        <lane id=":gneJ10_4_0" index="0" speed="13.89" length="2.41" shape="-14.75,151.59 -15.85,150.60 -16.14,149.72"/>
    </edge>
    <edge id=":gneJ10_21" function="internal">
        <lane id=":gneJ10_21_0" index="0" speed="13.89" length="9.23" shape="-20.55,148.98 -21.60,148.11 -22.95,144.83 -22.91,140.51"/>
    </edge>
    <edge id=":gneJ10_22" function="internal">
        <lane id=":gneJ10_22_0" index="0" speed="13.89" length="2.41" shape="-16.14,149.72 -15.61,148.96 -14.26,148.33"/>
    </edge>
    <edge id=":gneJ10_5" function="internal">
        <lane id=":gneJ10_5_0" index="0" speed="13.89" length="5.04" shape="-16.38,141.50 -16.40,142.89 -15.97,143.95 -15.10,144.67 -13.78,145.06"/>
    </edge>
    <edge id=":gneJ10_6" function="internal">
        <lane id=":gneJ10_6_0" index="0" speed="13.89" length="5.04" shape="-16.38,141.50 -16.40,142.89 -15.97,143.95 -15.10,144.67 -13.78,145.06"/>
    </edge>
    <edge id=":gneJ10_7" function="internal">
        <lane id=":gneJ10_7_0" index="0" speed="13.89" length="16.32" shape="-16.38,141.50 -19.01,157.64"/>
        <lane id=":gneJ10_7_1" index="1" speed="13.89" length="16.32" shape="-19.65,141.00 -22.26,157.08"/>
    </edge>
    <edge id=":gneJ10_9" function="internal">
        <lane id=":gneJ10_9_0" index="0" speed="13.89" length="15.75" shape="-19.65,141.00 -20.89,145.14 -23.16,147.87 -26.46,149.19 -30.78,149.12"/>
    </edge>
    <edge id=":gneJ10_10" function="internal">
        <lane id=":gneJ10_10_0" index="0" speed="13.89" length="5.03" shape="-29.73,142.60 -28.35,142.63 -27.30,142.20 -26.57,141.33 -26.17,140.02"/>
    </edge>
    <edge id=":gneJ10_11" function="internal">
        <lane id=":gneJ10_11_0" index="0" speed="13.89" length="16.16" shape="-29.73,142.60 -13.78,145.06"/>
    </edge>
    <edge id=":gneJ10_12" function="internal">
        <lane id=":gneJ10_12_0" index="0" speed="13.89" length="16.37" shape="-29.73,142.60 -13.78,145.06"/>
        <lane id=":gneJ10_12_1" index="1" speed="13.89" length="16.37" shape="-30.26,145.86 -25.40,146.12 -22.03,145.50 -18.65,144.86 -13.78,145.06"/>
    </edge>
    <edge id=":gneJ10_14" function="internal">
        <lane id=":gneJ10_14_0" index="0" speed="13.89" length="16.16" shape="-30.26,145.86 -14.26,148.33"/>
    </edge>
    <edge id=":gneJ10_15" function="internal">
        <lane id=":gneJ10_15_0" index="0" speed="13.89" length="6.35" shape="-30.26,145.86 -26.13,147.14 -24.58,148.45"/>
    </edge>
    <edge id=":gneJ10_23" function="internal">
        <lane id=":gneJ10_23_0" index="0" speed="13.89" length="9.41" shape="-24.58,148.45 -23.42,149.44 -22.13,152.75 -22.26,157.08"/>
    </edge>
    <edge id=":gneJ10_16" function="internal">
        <lane id=":gneJ10_16_0" index="0" speed="13.89" length="5.02" shape="-28.76,155.94 -28.72,154.57 -29.13,153.51 -29.99,152.78 -31.31,152.37"/>
    </edge>
    <edge id=":gneJ10_17" function="internal">
        <lane id=":gneJ10_17_0" index="0" speed="13.89" length="16.17" shape="-28.76,155.94 -26.17,140.02"/>
        <lane id=":gneJ10_17_1" index="1" speed="13.89" length="16.17" shape="-25.51,156.51 -22.91,140.51"/>
    </edge>
    <edge id=":gneJ10_19" function="internal">
        <lane id=":gneJ10_19_0" index="0" speed="13.89" length="15.77" shape="-25.51,156.51 -24.18,152.40 -21.86,149.67 -18.56,148.31 -14.26,148.33"/>
    </edge>
    <edge id=":gneJ10_20" function="internal">
        <lane id=":gneJ10_20_0" index="0" speed="13.89" length="15.77" shape="-25.51,156.51 -24.18,152.40 -21.86,149.67 -18.56,148.31 -14.26,148.33"/>
    </edge>
    <edge id=":gneJ100_0" function="internal">
        <lane id=":gneJ100_0_0" index="0" speed="13.89" length="0.24" shape="3067.82,8716.40 3067.81,8716.18"/>
        <lane id=":gneJ100_0_1" index="1" speed="13.89" length="0.24" shape="3071.12,8716.24 3071.10,8715.97"/>
    </edge>
    <edge id=":gneJ100_2" function="internal">
        <lane id=":gneJ100_2_0" index="0" speed="13.89" length="0.34" shape="3077.69,8715.55 3077.71,8715.91"/>
        <lane id=":gneJ100_2_1" index="1" speed="13.89" length="0.34" shape="3074.40,8715.76 3074.42,8716.07"/>
    </edge>
    <edge id=":gneJ101_0" function="internal">
        <lane id=":gneJ101_0_0" index="0" speed="13.89" length="0.69" shape="3070.51,8770.75 3070.44,8769.94"/>
        <lane id=":gneJ101_0_1" index="1" speed="13.89" length="0.69" shape="3073.79,8770.35 3073.74,8769.78"/>
    </edge>
    <edge id=":gneJ101_2" function="internal">
        <lane id=":gneJ101_2_0" index="0" speed="13.89" length="0.23" shape="3080.33,8769.46 3080.34,8769.57"/>
        <lane id=":gneJ101_2_1" index="1" speed="13.89" length="0.23" shape="3077.04,8769.62 3077.07,8769.96"/>
    </edge>
    <edge id=":gneJ102_0" function="internal">
        <lane id=":gneJ102_0_0" index="0" speed="13.89" length="0.15" shape="3075.65,8813.68 3075.65,8813.65"/>
        <lane id=":gneJ102_0_1" index="1" speed="13.89" length="0.15" shape="3078.94,8813.45 3078.93,8813.26"/>
    </edge>
    <edge id=":gneJ102_2" function="internal">
        <lane id=":gneJ102_2_0" index="0" speed="13.89" length="0.44" shape="3085.48,8812.48 3085.53,8812.99"/>
        <lane id=":gneJ102_2_1" index="1" speed="13.89" length="0.44" shape="3082.20,8812.87 3082.24,8813.22"/>
    </edge>
    <edge id=":gneJ103_0" function="internal">
        <lane id=":gneJ103_0_0" index="0" speed="13.89" length="0.93" shape="3081.28,8893.97 3081.22,8893.65 3081.19,8893.43 3081.17,8893.22 3081.15,8892.90"/>
        <lane id=":gneJ103_0_1" index="1" speed="13.89" length="0.93" shape="3084.53,8893.43 3084.50,8893.21 3084.47,8893.05 3084.46,8892.90 3084.44,8892.67"/>
    </edge>
    <edge id=":gneJ103_2" function="internal">
        <lane id=":gneJ103_2_0" index="0" speed="13.89" length="0.31" shape="3091.03,8892.21 3091.03,8892.25 3091.03,8892.28 3091.04,8892.32 3091.04,8892.36"/>
        <lane id=":gneJ103_2_1" index="1" speed="13.89" length="0.31" shape="3087.73,8892.44 3087.74,8892.57 3087.75,8892.67 3087.77,8892.76 3087.79,8892.90"/>
    </edge>
    <edge id=":gneJ104_0" function="internal">
        <lane id=":gneJ104_0_0" index="0" speed="13.89" length="6.17" shape="3109.65,9062.91 3109.01,9061.81 3107.92,9061.03 3106.39,9060.59 3104.43,9060.47"/>
    </edge>
    <edge id=":gneJ104_1" function="internal">
        <lane id=":gneJ104_1_0" index="0" speed="13.89" length="12.43" shape="3109.65,9062.91 3108.54,9059.32 3107.99,9056.80 3107.63,9054.23 3107.08,9050.50"/>
        <lane id=":gneJ104_1_1" index="1" speed="13.89" length="12.43" shape="3112.78,9061.85 3111.72,9058.41 3111.20,9056.00 3110.86,9053.54 3110.33,9049.97"/>
    </edge>
    <edge id=":gneJ104_3" function="internal">
        <lane id=":gneJ104_3_0" index="0" speed="13.89" length="11.36" shape="3116.84,9048.89 3117.32,9052.15 3117.61,9054.40 3118.07,9056.60 3119.03,9059.74"/>
        <lane id=":gneJ104_3_1" index="1" speed="13.89" length="11.36" shape="3113.59,9049.43 3114.09,9052.85 3114.40,9055.20 3114.89,9057.51 3115.91,9060.80"/>
    </edge>
    <edge id=":gneJ104_5" function="internal">
        <lane id=":gneJ104_5_0" index="0" speed="13.89" length="6.82" shape="3113.59,9049.43 3113.68,9054.17 3112.85,9056.07"/>
    </edge>
    <edge id=":gneJ104_8" function="internal">
        <lane id=":gneJ104_8_0" index="0" speed="13.89" length="10.13" shape="3112.85,9056.07 3112.19,9057.59 3109.10,9059.69 3104.43,9060.47"/>
    </edge>
    <edge id=":gneJ104_6" function="internal">
        <lane id=":gneJ104_6_0" index="0" speed="13.89" length="5.18" shape="3104.28,9053.88 3105.71,9053.64 3106.65,9052.99 3107.10,9051.95 3107.08,9050.50"/>
    </edge>
    <edge id=":gneJ104_7" function="internal">
        <lane id=":gneJ104_7_0" index="0" speed="13.89" length="12.75" shape="3104.35,9057.17 3108.92,9057.31 3112.37,9057.96 3114.70,9059.13 3115.91,9060.80"/>
    </edge>
    <edge id=":gneJ105_0" function="internal">
        <lane id=":gneJ105_0_0" index="0" speed="13.89" length="0.35" shape="3137.73,9145.99 3137.60,9145.62"/>
        <lane id=":gneJ105_0_1" index="1" speed="13.89" length="0.35" shape="3140.83,9144.85 3140.72,9144.56"/>
    </edge>
    <edge id=":gneJ105_2" function="internal">
        <lane id=":gneJ105_2_0" index="0" speed="13.89" length="0.18" shape="3146.98,9142.45 3147.02,9142.58"/>
        <lane id=":gneJ105_2_1" index="1" speed="13.89" length="0.18" shape="3143.85,9143.51 3143.92,9143.72"/>
    </edge>
    <edge id=":gneJ106_0" function="internal">
        <lane id=":gneJ106_0_0" index="0" speed="13.89" length="0.15" shape="3189.57,9287.00 3189.56,9286.97"/>
        <lane id=":gneJ106_0_1" index="1" speed="13.89" length="0.15" shape="3192.72,9286.01 3192.65,9285.83"/>
    </edge>
    <edge id=":gneJ106_2" function="internal">
        <lane id=":gneJ106_2_0" index="0" speed="13.89" length="0.44" shape="3198.85,9283.55 3199.02,9284.04"/>
        <lane id=":gneJ106_2_1" index="1" speed="13.89" length="0.44" shape="3195.75,9284.69 3195.87,9285.03"/>
    </edge>
    <edge id=":gneJ107_0" function="internal">
        <lane id=":gneJ107_0_0" index="0" speed="13.89" length="0.50" shape="3219.89,9373.42 3219.88,9373.35 3219.87,9373.30 3219.85,9373.26 3219.83,9373.19"/>
        <lane id=":gneJ107_0_1" index="1" speed="13.89" length="0.50" shape="3223.13,9372.76 3223.08,9372.54 3223.04,9372.39 3223.00,9372.24 3222.92,9372.03"/>
    </edge>
    <edge id=":gneJ107_2" function="internal">
        <lane id=":gneJ107_2_0" index="0" speed="13.89" length="1.51" shape="3229.10,9369.73 3229.28,9370.22 3229.39,9370.56 3229.48,9370.91 3229.59,9371.42"/>
        <lane id=":gneJ107_2_1" index="1" speed="13.89" length="1.51" shape="3226.01,9370.88 3226.14,9371.23 3226.22,9371.48 3226.28,9371.72 3226.36,9372.09"/>
    </edge>
    <edge id=":gneJ108_0" function="internal">
        <lane id=":gneJ108_0_0" index="0" speed="13.89" length="1.23" shape="3223.43,9390.11 3223.29,9389.71 3223.21,9389.43 3223.14,9389.15 3223.05,9388.73"/>
        <lane id=":gneJ108_0_1" index="1" speed="13.89" length="1.23" shape="3226.55,9389.05 3226.45,9388.76 3226.39,9388.56 3226.34,9388.36 3226.28,9388.06"/>
    </edge>
    <edge id=":gneJ108_2" function="internal">
        <lane id=":gneJ108_2_0" index="0" speed="13.89" length="0.41" shape="3232.75,9386.73 3232.76,9386.79 3232.77,9386.83 3232.78,9386.87 3232.80,9386.92"/>
        <lane id=":gneJ108_2_1" index="1" speed="13.89" length="0.41" shape="3229.51,9387.40 3229.55,9387.57 3229.58,9387.69 3229.62,9387.81 3229.67,9387.99"/>
    </edge>
    <edge id=":gneJ109_0" function="internal">
        <lane id=":gneJ109_0_0" index="0" speed="13.89" length="0.28" shape="3300.54,9616.63 3300.46,9616.36"/>
        <lane id=":gneJ109_0_1" index="1" speed="13.89" length="0.28" shape="3303.67,9615.58 3303.58,9615.30"/>
    </edge>
    <edge id=":gneJ109_2" function="internal">
        <lane id=":gneJ109_2_0" index="0" speed="13.89" length="0.31" shape="3309.83,9613.17 3309.93,9613.48"/>
        <lane id=":gneJ109_2_1" index="1" speed="13.89" length="0.31" shape="3306.70,9614.24 3306.80,9614.53"/>
    </edge>
    <edge id=":gneJ11_0" function="internal">
        <lane id=":gneJ11_0_0" index="0" speed="13.89" length="5.10" shape="-40.76,282.38 -40.79,283.75 -40.36,284.81 -39.47,285.56 -38.12,286.01"/>
    </edge>
    <edge id=":gneJ11_1" function="internal">
        <lane id=":gneJ11_1_0" index="0" speed="13.89" length="18.81" shape="-40.76,282.38 -43.83,300.89"/>
        <lane id=":gneJ11_1_1" index="1" speed="13.89" length="18.81" shape="-44.01,281.82 -47.10,300.44"/>
    </edge>
    <edge id=":gneJ11_3" function="internal">
        <lane id=":gneJ11_3_0" index="0" speed="13.89" length="21.29" shape="-44.01,281.82 -45.85,288.71 -48.56,293.35 -52.15,295.74 -56.61,295.87"/>
    </edge>
    <edge id=":gneJ11_4" function="internal">
        <lane id=":gneJ11_4_0" index="0" speed="13.89" length="7.65" shape="-54.66,286.17 -53.24,286.06 -52.08,285.11 -51.17,283.32 -50.51,280.68"/>
    </edge>
    <edge id=":gneJ11_5" function="internal">
        <lane id=":gneJ11_5_0" index="0" speed="13.89" length="16.61" shape="-54.66,286.17 -49.80,286.62 -46.40,286.14 -42.99,285.63 -38.12,286.01"/>
        <lane id=":gneJ11_5_1" index="1" speed="13.89" length="16.61" shape="-55.31,289.40 -50.43,289.86 -47.02,289.38 -43.61,288.87 -38.72,289.25"/>
        <lane id=":gneJ11_5_2" index="2" speed="13.89" length="16.61" shape="-55.96,292.64 -51.07,293.10 -47.65,292.62 -44.22,292.11 -39.32,292.50"/>
        <lane id=":gneJ11_5_3" index="3" speed="13.89" length="16.61" shape="-55.96,292.64 -39.92,295.74"/>
    </edge>
    <edge id=":gneJ11_9" function="internal">
        <lane id=":gneJ11_9_0" index="0" speed="13.89" length="13.07" shape="-55.96,292.64 -51.78,293.86 -48.91,295.56 -47.35,297.76 -47.10,300.44"/>
    </edge>
    <edge id=":gneJ11_10" function="internal">
        <lane id=":gneJ11_10_0" index="0" speed="13.89" length="5.30" shape="-53.64,299.53 -53.67,298.19 -54.18,297.13 -55.16,296.36 -56.61,295.87"/>
    </edge>
    <edge id=":gneJ11_11" function="internal">
        <lane id=":gneJ11_11_0" index="0" speed="13.89" length="19.05" shape="-53.64,299.53 -50.51,280.68"/>
        <lane id=":gneJ11_11_1" index="1" speed="13.89" length="19.05" shape="-50.37,299.98 -47.26,281.25"/>
    </edge>
    <edge id=":gneJ11_13" function="internal">
        <lane id=":gneJ11_13_0" index="0" speed="13.89" length="12.77" shape="-50.37,299.98 -49.40,297.46 -47.34,295.91 -44.18,295.34 -39.92,295.74"/>
    </edge>
    <edge id=":gneJ110_0" function="internal">
        <lane id=":gneJ110_0_0" index="0" speed="13.89" length="0.15" shape="3350.80,9766.49 3350.79,9766.46"/>
        <lane id=":gneJ110_0_1" index="1" speed="13.89" length="0.15" shape="3353.98,9765.60 3353.92,9765.41"/>
    </edge>
    <edge id=":gneJ110_2" function="internal">
        <lane id=":gneJ110_2_0" index="0" speed="13.89" length="0.44" shape="3360.18,9763.32 3360.33,9763.81"/>
        <lane id=":gneJ110_2_1" index="1" speed="13.89" length="0.44" shape="3357.05,9764.37 3357.16,9764.71"/>
    </edge>
    <edge id=":gneJ111_0" function="internal">
        <lane id=":gneJ111_0_0" index="0" speed="13.89" length="2.08" shape="3388.93,9878.94 3388.55,9878.32 3388.32,9877.89 3388.12,9877.43 3387.88,9876.75"/>
        <lane id=":gneJ111_0_1" index="1" speed="13.89" length="2.08" shape="3391.73,9877.20 3391.46,9876.76 3391.30,9876.45 3391.16,9876.13 3390.98,9875.64"/>
    </edge>
    <edge id=":gneJ111_2" function="internal">
        <lane id=":gneJ111_2_0" index="0" speed="13.89" length="0.69" shape="3397.20,9873.42 3397.23,9873.51 3397.26,9873.58 3397.29,9873.64 3397.34,9873.72"/>
        <lane id=":gneJ111_2_1" index="1" speed="13.89" length="0.69" shape="3394.09,9874.53 3394.19,9874.82 3394.28,9875.01 3394.38,9875.20 3394.54,9875.46"/>
    </edge>
    <edge id=":gneJ113_0" function="internal">
        <lane id=":gneJ113_0_0" index="0" speed="13.89" length="0.89" shape="3425.98,9938.64 3425.80,9938.40 3425.68,9938.22 3425.56,9938.05 3425.40,9937.79"/>
        <lane id=":gneJ113_0_1" index="1" speed="13.89" length="0.89" shape="3428.62,9936.66 3428.49,9936.48 3428.40,9936.36 3428.32,9936.23 3428.20,9936.05"/>
    </edge>
    <edge id=":gneJ113_2" function="internal">
        <lane id=":gneJ113_2_0" index="0" speed="13.89" length="0.29" shape="3433.81,9932.57 3433.83,9932.61 3433.85,9932.63 3433.87,9932.66 3433.89,9932.69"/>
        <lane id=":gneJ113_2_1" index="1" speed="13.89" length="0.29" shape="3431.01,9934.31 3431.08,9934.42 3431.13,9934.50 3431.18,9934.57 3431.26,9934.67"/>
    </edge>
    <edge id=":gneJ114_0" function="internal">
        <lane id=":gneJ114_0_0" index="0" speed="13.89" length="8.29" shape="3578.22,10140.84 3577.19,10140.04 3575.52,10139.53 3573.22,10139.33 3570.28,10139.44"/>
    </edge>
    <edge id=":gneJ114_1" function="internal">
        <lane id=":gneJ114_1_0" index="0" speed="13.89" length="10.72" shape="3578.22,10140.84 3571.77,10132.27"/>
        <lane id=":gneJ114_1_1" index="1" speed="13.89" length="10.72" shape="3580.86,10138.87 3574.41,10130.29"/>
    </edge>
    <edge id=":gneJ114_3" function="internal">
        <lane id=":gneJ114_3_0" index="0" speed="13.89" length="10.76" shape="3579.68,10126.32 3586.15,10134.92"/>
        <lane id=":gneJ114_3_1" index="1" speed="13.89" length="10.76" shape="3577.05,10128.31 3583.51,10136.90"/>
    </edge>
    <edge id=":gneJ114_5" function="internal">
        <lane id=":gneJ114_5_0" index="0" speed="13.89" length="6.46" shape="3577.05,10128.31 3579.45,10132.76 3579.32,10134.15"/>
    </edge>
    <edge id=":gneJ114_8" function="internal">
        <lane id=":gneJ114_8_0" index="0" speed="13.89" length="11.63" shape="3579.32,10134.15 3579.13,10136.10 3576.07,10138.32 3570.28,10139.44"/>
    </edge>
    <edge id=":gneJ114_6" function="internal">
        <lane id=":gneJ114_6_0" index="0" speed="13.89" length="5.93" shape="3570.03,10136.15 3571.79,10135.78 3572.67,10135.01 3572.66,10133.84 3571.77,10132.27"/>
    </edge>
    <edge id=":gneJ114_7" function="internal">
        <lane id=":gneJ114_7_0" index="0" speed="13.89" length="13.68" shape="3570.03,10136.15 3575.45,10135.84 3579.50,10135.86 3582.19,10136.21 3583.51,10136.90"/>
    </edge>
    <edge id=":gneJ115_0" function="internal">
        <lane id=":gneJ115_0_0" index="0" speed="13.89" length="0.34" shape="3670.75,10264.97 3670.53,10264.68"/>
        <lane id=":gneJ115_0_1" index="1" speed="13.89" length="0.34" shape="3673.36,10262.96 3673.17,10262.71"/>
    </edge>
    <edge id=":gneJ115_2" function="internal">
        <lane id=":gneJ115_2_0" index="0" speed="13.89" length="0.24" shape="3678.46,10258.77 3678.59,10258.93"/>
        <lane id=":gneJ115_2_1" index="1" speed="13.89" length="0.24" shape="3675.82,10260.74 3675.98,10260.95"/>
    </edge>
    <edge id=":gneJ116_0" function="internal">
        <lane id=":gneJ116_0_0" index="0" speed="13.89" length="0.30" shape="3761.63,10383.44 3761.45,10383.20"/>
        <lane id=":gneJ116_0_1" index="1" speed="13.89" length="0.30" shape="3764.26,10381.44 3764.08,10381.21"/>
    </edge>
    <edge id=":gneJ116_2" function="internal">
        <lane id=":gneJ116_2_0" index="0" speed="13.89" length="0.30" shape="3769.35,10377.22 3769.53,10377.46"/>
        <lane id=":gneJ116_2_1" index="1" speed="13.89" length="0.30" shape="3766.71,10379.21 3766.90,10379.45"/>
    </edge>
    <edge id=":gneJ117_0" function="internal">
        <lane id=":gneJ117_0_0" index="0" speed="13.89" length="0.78" shape="3942.84,10623.11 3942.79,10623.00 3942.76,10622.93 3942.71,10622.87 3942.65,10622.78"/>
        <lane id=":gneJ117_0_1" index="1" speed="13.89" length="0.78" shape="3945.87,10621.80 3945.73,10621.48 3945.62,10621.27 3945.49,10621.07 3945.28,10620.79"/>
    </edge>
    <edge id=":gneJ117_2" function="internal">
        <lane id=":gneJ117_2_0" index="0" speed="13.89" length="2.36" shape="3950.54,10616.81 3951.03,10617.46 3951.34,10617.93 3951.60,10618.43 3951.93,10619.18"/>
        <lane id=":gneJ117_2_1" index="1" speed="13.89" length="2.36" shape="3947.91,10618.80 3948.26,10619.26 3948.48,10619.60 3948.66,10619.95 3948.90,10620.49"/>
    </edge>
    <edge id=":gneJ118_0" function="internal">
        <lane id=":gneJ118_0_0" index="0" speed="13.89" length="0.95" shape="3960.89,10665.00 3960.87,10664.87 3960.85,10664.77 3960.82,10664.68 3960.77,10664.56"/>
        <lane id=":gneJ118_0_1" index="1" speed="13.89" length="0.95" shape="3964.16,10664.61 3964.11,10664.20 3964.05,10663.91 3963.96,10663.64 3963.80,10663.25"/>
    </edge>
    <edge id=":gneJ118_2" function="internal">
        <lane id=":gneJ118_2_0" index="0" speed="13.89" length="2.86" shape="3969.85,10660.63 3970.24,10661.54 3970.46,10662.18 3970.59,10662.85 3970.72,10663.84"/>
        <lane id=":gneJ118_2_1" index="1" speed="13.89" length="2.86" shape="3966.82,10661.94 3967.10,10662.59 3967.26,10663.05 3967.35,10663.52 3967.44,10664.23"/>
    </edge>
    <edge id=":gneJ119_0" function="internal">
        <lane id=":gneJ119_0_0" index="0" speed="13.89" length="0.31" shape="3981.58,10975.70 3981.56,10975.39"/>
        <lane id=":gneJ119_0_1" index="1" speed="13.89" length="0.31" shape="3984.87,10975.49 3984.85,10975.18"/>
    </edge>
    <edge id=":gneJ119_2" function="internal">
        <lane id=":gneJ119_2_0" index="0" speed="13.89" length="0.29" shape="3991.44,10974.77 3991.46,10975.06"/>
        <lane id=":gneJ119_2_1" index="1" speed="13.89" length="0.29" shape="3988.15,10974.98 3988.17,10975.27"/>
    </edge>
    <edge id=":gneJ12_0" function="internal">
        <lane id=":gneJ12_0_0" index="0" speed="13.89" length="5.00" shape="-62.37,456.26 -63.75,456.23 -64.80,456.64 -65.53,457.50 -65.95,458.81"/>
    </edge>
    <edge id=":gneJ12_1" function="internal">
        <lane id=":gneJ12_1_0" index="0" speed="13.89" length="16.64" shape="-61.82,453.01 -66.99,451.62 -70.78,449.84 -73.95,448.18 -77.31,447.12"/>
    </edge>
    <edge id=":gneJ12_2" function="internal">
        <lane id=":gneJ12_2_0" index="0" speed="13.89" length="15.83" shape="-61.27,449.76 -65.36,448.44 -68.09,446.12 -69.46,442.79 -69.48,438.44"/>
    </edge>
    <edge id=":gneJ12_3" function="internal">
        <lane id=":gneJ12_3_0" index="0" speed="13.89" length="19.65" shape="-62.94,439.34 -65.95,458.81"/>
        <lane id=":gneJ12_3_1" index="1" speed="13.89" length="19.65" shape="-66.21,438.89 -69.20,458.26"/>
    </edge>
    <edge id=":gneJ12_5" function="internal">
        <lane id=":gneJ12_5_0" index="0" speed="13.89" length="15.83" shape="-66.21,438.89 -67.41,443.08 -69.66,445.84 -72.96,447.19 -77.31,447.12"/>
    </edge>
    <edge id=":gneJ12_6" function="internal">
        <lane id=":gneJ12_6_0" index="0" speed="13.89" length="5.02" shape="-76.27,440.60 -74.89,440.62 -73.84,440.20 -73.12,439.32 -72.74,437.99"/>
    </edge>
    <edge id=":gneJ12_7" function="internal">
        <lane id=":gneJ12_7_0" index="0" speed="13.89" length="8.52" shape="-76.79,443.86 -72.67,445.34 -70.03,448.24 -69.97,448.45"/>
    </edge>
    <edge id=":gneJ12_11" function="internal">
        <lane id=":gneJ12_11_0" index="0" speed="13.89" length="9.97" shape="-69.97,448.45 -68.87,452.54 -69.20,458.26"/>
    </edge>
    <edge id=":gneJ12_8" function="internal">
        <lane id=":gneJ12_8_0" index="0" speed="13.89" length="10.92" shape="-75.71,457.18 -75.21,452.97 -75.31,449.89 -76.01,447.94 -77.31,447.12"/>
    </edge>
    <edge id=":gneJ12_9" function="internal">
        <lane id=":gneJ12_9_0" index="0" speed="13.89" length="19.46" shape="-75.71,457.18 -72.74,437.99"/>
        <lane id=":gneJ12_9_1" index="1" speed="13.89" length="19.46" shape="-72.46,457.72 -69.48,438.44"/>
    </edge>
    <edge id=":gneJ120_0" function="internal">
        <lane id=":gneJ120_0_0" index="0" speed="13.89" length="0.28" shape="4001.17,11277.45 4001.15,11277.18"/>
        <lane id=":gneJ120_0_1" index="1" speed="13.89" length="0.28" shape="4004.46,11277.26 4004.44,11276.97"/>
    </edge>
    <edge id=":gneJ120_2" function="internal">
        <lane id=":gneJ120_2_0" index="0" speed="13.89" length="0.32" shape="4011.03,11276.54 4011.05,11276.87"/>
        <lane id=":gneJ120_2_1" index="1" speed="13.89" length="0.32" shape="4007.74,11276.75 4007.76,11277.06"/>
    </edge>
    <edge id=":gneJ121_0" function="internal">
        <lane id=":gneJ121_0_0" index="0" speed="13.89" length="10.04" shape="4032.02,11776.78 4031.52,11773.65 4030.45,11771.41 4028.80,11770.06 4026.59,11769.61"/>
    </edge>
    <edge id=":gneJ121_1" function="internal">
        <lane id=":gneJ121_1_0" index="0" speed="13.89" length="36.85" shape="4032.02,11776.78 4029.71,11740.02"/>
        <lane id=":gneJ121_1_1" index="1" speed="13.89" length="36.85" shape="4035.32,11776.58 4033.01,11739.80"/>
    </edge>
    <edge id=":gneJ121_3" function="internal">
        <lane id=":gneJ121_3_0" index="0" speed="13.89" length="22.06" shape="4035.32,11776.58 4035.54,11769.22 4037.23,11763.97 4040.37,11760.82 4044.99,11759.80"/>
    </edge>
    <edge id=":gneJ121_4" function="internal">
        <lane id=":gneJ121_4_0" index="0" speed="13.89" length="7.87" shape="4044.92,11773.00 4043.53,11773.19 4042.56,11773.78 4042.02,11774.78 4041.91,11776.18"/>
        <lane id=":gneJ121_4_1" index="1" speed="13.89" length="7.87" shape="4044.94,11769.70 4042.02,11770.10 4039.99,11771.35 4038.85,11773.44 4038.61,11776.38"/>
    </edge>
    <edge id=":gneJ121_6" function="internal">
        <lane id=":gneJ121_6_0" index="0" speed="13.89" length="18.74" shape="4044.94,11769.70 4039.45,11769.15 4035.77,11768.00 4032.09,11766.85 4026.60,11766.31"/>
        <lane id=":gneJ121_6_1" index="1" speed="13.89" length="18.74" shape="4044.95,11766.40 4039.47,11765.85 4035.79,11764.70 4032.11,11763.55 4026.62,11763.01"/>
    </edge>
    <edge id=":gneJ121_8" function="internal">
        <lane id=":gneJ121_8_0" index="0" speed="13.89" length="11.42" shape="4044.95,11766.40 4038.92,11764.72 4034.37,11759.77 4033.22,11756.68"/>
        <lane id=":gneJ121_8_1" index="1" speed="13.89" length="11.42" shape="4044.97,11763.10 4040.30,11761.62 4039.26,11760.34"/>
    </edge>
    <edge id=":gneJ121_21" function="internal">
        <lane id=":gneJ121_21_0" index="0" speed="13.89" length="17.12" shape="4033.22,11756.68 4031.30,11751.53 4029.71,11740.02"/>
    </edge>
    <edge id=":gneJ121_22" function="internal">
        <lane id=":gneJ121_22_0" index="0" speed="13.89" length="21.91" shape="4039.26,11760.34 4036.75,11757.25 4034.32,11749.97 4033.01,11739.80"/>
    </edge>
    <edge id=":gneJ121_10" function="internal">
        <lane id=":gneJ121_10_0" index="0" speed="13.89" length="15.79" shape="4039.59,11739.38 4040.27,11745.42 4041.39,11749.73 4042.98,11752.32 4045.02,11753.20"/>
    </edge>
    <edge id=":gneJ121_11" function="internal">
        <lane id=":gneJ121_11_0" index="0" speed="13.89" length="36.87" shape="4039.59,11739.38 4041.91,11776.18"/>
        <lane id=":gneJ121_11_1" index="1" speed="13.89" length="36.87" shape="4036.30,11739.59 4038.61,11776.38"/>
    </edge>
    <edge id=":gneJ121_13" function="internal">
        <lane id=":gneJ121_13_0" index="0" speed="13.89" length="28.22" shape="4036.30,11739.59 4036.26,11749.85 4034.63,11757.18 4031.42,11761.56 4026.62,11763.01"/>
    </edge>
    <edge id=":gneJ121_14" function="internal">
        <lane id=":gneJ121_14_0" index="0" speed="13.89" length="7.88" shape="4026.71,11743.21 4028.10,11743.01 4029.06,11742.42 4029.60,11741.42 4029.71,11740.02"/>
        <lane id=":gneJ121_14_1" index="1" speed="13.89" length="7.88" shape="4026.69,11746.51 4029.62,11746.10 4031.64,11744.85 4032.77,11742.75 4033.01,11739.80"/>
    </edge>
    <edge id=":gneJ121_16" function="internal">
        <lane id=":gneJ121_16_0" index="0" speed="13.89" length="19.87" shape="4026.69,11746.51 4032.30,11747.56 4035.86,11749.85 4039.41,11752.14 4045.02,11753.20"/>
        <lane id=":gneJ121_16_1" index="1" speed="13.89" length="19.87" shape="4026.68,11749.81 4032.28,11750.86 4035.84,11753.15 4039.40,11755.44 4045.01,11756.50"/>
        <lane id=":gneJ121_16_2" index="2" speed="13.89" length="19.87" shape="4026.66,11753.11 4032.27,11754.16 4035.83,11756.45 4039.38,11758.74 4044.99,11759.80"/>
    </edge>
    <edge id=":gneJ121_19" function="internal">
        <lane id=":gneJ121_19_0" index="0" speed="13.89" length="11.15" shape="4026.65,11756.41 4032.87,11757.67 4037.49,11761.38 4038.75,11763.95"/>
        <lane id=":gneJ121_19_1" index="1" speed="13.89" length="11.15" shape="4026.63,11759.71 4031.50,11760.77 4033.14,11762.20"/>
    </edge>
    <edge id=":gneJ121_23" function="internal">
        <lane id=":gneJ121_23_0" index="0" speed="13.89" length="12.75" shape="4038.75,11763.95 4040.50,11767.55 4041.91,11776.18"/>
    </edge>
    <edge id=":gneJ121_24" function="internal">